
Circuit: .options savecurrents

Doing analysis at TEMP = 27.000000 and TNOM = 27.000000



No. of Data Rows : 1
a = 1.927666e+00
b = -9.32923e-02
c = -4.29388e+00
d = -3.20846e+00
e = 1.908964e-01
f = 9.520354e+00
g1 = -9.32084e-01
g2 = -9.32084e-01
h = 2.000000e-01
hc#branch = 2.142778e-03
va#branch = -1.94061e-03
vaux#branch = -1.11077e-03
Note: No ".plot", ".print", or ".fourier" lines; no simulations run
