
Circuit: Alínea 1 

Doing analysis at TEMP = 27.000000 and TNOM = 27.000000



No. of Data Rows : 1
@ca[i] = 0.000000e+00
@gb[i] = -2.53212e-04
@r1[i] = 2.414774e-04
@r2[i] = 2.532123e-04
@r3[i] = -1.17349e-05
@r4[i] = -1.20106e-03
@r5[i] = -2.53212e-04
@r6[i] = 9.595831e-04
@r7[i] = 9.595831e-04
v(1) = 5.136122e+00
v(2) = 4.884647e+00
v(3) = 4.361951e+00
v(5) = 4.920010e+00
v(6) = 5.690271e+00
v(8) = -2.94454e+00
v(71) = -1.96654e+00
v(72) = -1.96654e+00
hd#branch = -9.59583e-04
vaux#branch = 9.595831e-04
vs#branch = -2.41477e-04
p1_TAB
@ca[i] = 0.000000e+00
@gb[i] = -2.53212e-04
@r1[i] = 2.414774e-04
@r2[i] = 2.532123e-04
@r3[i] = -1.17349e-05
@r4[i] = -1.20106e-03
@r5[i] = -2.53212e-04
@r6[i] = 9.595831e-04
@r7[i] = 9.595831e-04
v(1) = 5.136122e+00
v(2) = 4.884647e+00
v(3) = 4.361951e+00
v(5) = 4.920010e+00
v(6) = 5.690271e+00
v(8) = -2.94454e+00
v(71) = -1.96654e+00
v(72) = -1.96654e+00
hd#branch = -9.59583e-04
vaux#branch = 9.595831e-04
vs#branch = -2.41477e-04
p1_END
