
Circuit: Alínea 5 

Doing analysis at TEMP = 27.000000 and TNOM = 27.000000



No. of Data Rows : 91

The file "mag5.ps" may be printed on a postscript printer.

The file "phase5.ps" may be printed on a postscript printer.
Error(parse.c--checkvalid): @ca[i]: no such vector.
