
Circuit: *

Doing analysis at TEMP = 27.000000 and TNOM = 27.000000


Initial Transient Solution
--------------------------

Node                                   Voltage
----                                   -------
tr1                                          0
tr2                                          0
a                                   6.5431e-16
c                                   6.5431e-16
1                                  1.30867e-15
rectified                          1.30867e-15
3                                  1.23982e-15
4                                  1.17097e-15
5                                   1.1021e-15
6                                  1.03322e-15
7                                  9.64332e-16
8                                  8.95467e-16
9                                  8.26585e-16
10                                 7.57703e-16
11                                 6.88821e-16
12                                  6.1994e-16
13                                 5.51064e-16
14                                 4.82172e-16
15                                  4.1328e-16
16                                 3.44388e-16
17                                 2.75507e-16
18                                 2.06626e-16
19                                  1.3774e-16
20                                 6.88755e-17
envelope                          -8.38974e-23
output                            -8.38974e-23
l2#branch                                    0
l1#branch                                    0
vin#branch                                   0


No. of Data Rows : 199766
vavg                =  1.200029e+01 from=  1.797500e+00 to=  1.997500e+00
vmax                =  1.200217e+01 at=  1.979975e+00
vmin                =  1.199803e+01 at=  1.814865e+00
vavg-12 = 2.900000e-04
vmax-vmin = 4.140000e-03
1/(((vavg-12)+(vmax-vmin)+1u)*(0.1*(19+4)+15+15+10+10+4+4)) = 3.742665e+00

The file "vinit.ps" may be printed on a postscript printer.
vinit_FIG
Doing analysis at TEMP = 27.000000 and TNOM = 27.000000


No. of Data Rows : 1
	Node                                  Voltage
	----                                  -------
	----	-------
	output                           -8.38974e-23
	envelope                         -8.38974e-23
	V(20)                            6.892565e-17
	V(19)                            1.378513e-16
	V(18)                            2.067602e-16
	V(17)                            2.756747e-16
	V(16)                            3.445728e-16
	V(15)                            4.134873e-16
	V(14)                            4.824024e-16
	V(13)                            5.513178e-16
	V(12)                            6.202323e-16
	V(11)                            6.891530e-16
	V(10)                            7.580917e-16
	V(9)                             8.270303e-16
	V(8)                             8.959510e-16
	V(7)                             9.648897e-16
	V(6)                             1.033410e-15
	V(5)                             1.102332e-15
	V(4)                             1.171222e-15
	V(3)                             1.240127e-15
	rectified                        1.308647e-15
	V(1)                             1.308647e-15
	c                                6.542998e-16
	a                                6.542998e-16
	tr2                              1.691727e-38
	tr1                              0.000000e+00

	Source	Current
	------	-------

	@cf[i]                           0.000000e+00
	@rf[i]                           0.000000e+00
	@ce[i]                           0.000000e+00
	@re[i]                           -5.59316e-27
	@de[id]                          1.814909e-27
	@dp19[id]                        9.557100e-29
	@dp18[id]                        9.557100e-29
	@dp17[id]                        9.555427e-29
	@dp16[id]                        9.555985e-29
	@dp15[id]                        9.554343e-29
	@dp14[id]                        9.555985e-29
	@dp13[id]                        9.556047e-29
	@dp12[id]                        9.556078e-29
	@dp11[id]                        9.555985e-29
	@dp10[id]                        9.556604e-29
	@dp9[id]                         9.558401e-29
	@dp8[id]                         9.558401e-29
	@dp7[id]                         9.556604e-29
	@dp6[id]                         9.558401e-29
	@dp5[id]                         9.516611e-29
	@dp4[id]                         9.556697e-29
	@dp3[id]                         9.553537e-29
	@dp2[id]                         9.555025e-29
	@dp1[id]                         9.516518e-29
	@ri[i]                           -5.51851e-27
	@ci[i]                           0.000000e+00
	@d4[id]                          -9.07431e-28
	@d3[id]                          -9.07431e-28
	@d2[id]                          -9.07478e-28
	@d1[id]                          -9.07478e-28
	@l2[i]                           2.896219e-46
	@l1[i]                           -1.69173e-39
	@rs[i]                           -1.69173e-39
	vin#branch                       1.691727e-39
	l1#branch                        -1.69173e-39
	l2#branch                        2.896219e-46

 Capacitor models (Fixed capacitor)
      model                     C

        cap                     0
         cj                     0
       cjsw                     0
       defw                 1e-05
       defl                     0
     narrow                     0
      short                     0
        del                     0
        tc1                     0
        tc2                     0
         di                     0
      thick                     0
     bv_max                 1e+99

 Diode models (Junction Diode model)
      model               default

      level                     1
         is                 1e-14
        jsw                     0
         rs                     0
        trs                     0
       trs2                     0
          n                     1
         ns                     1
         tt                     0
       ttt1                     0
       ttt2                     0
        cjo                     0
         vj                     1
          m                   0.5
        tm1                     0
        tm2                     0
        cjp                     0
        php                     1
       mjsw                  0.33
        ikf                     0
        ikr                     0
        nbv                     1
       area                     1
         pj                     0
       tlev                     0
      tlevc                     0
         eg                  1.11
        xti                     3
        cta                     0
        ctp                     0
        tpb                     0
       tphp                     0
       jtun                     0
     jtunsw                     0
       ntun                    30
     xtitun                     3
        keg                     1
         kf                     0
         af                     1
         fc                   0.5
        fcs                   0.5
         bv                     0
        ibv                 0.001
        tcv                     0
     fv_max                 1e+99
     bv_max                 1e+99
        isr                 1e-14
         nr                     1

 Inductor models (Fixed inductor)
      model                     L

        ind                     0
        tc1                     0
        tc2                     0
      csect                     0
     length                     0
         nt                     0
         mu                     0

 Resistor models (Simple linear resistor)
      model                     R

        rsh                     0
     narrow                     0
      short                     0
        tc1                     0
        tc2                     0
        tce                     0
       defw                 1e-05
          l                 1e-05
         kf                     0
         af                     0
          r                     0
     bv_max                 1e+99
         lf                     1
         wf                     1
         ef                     1

 Capacitor: Fixed capacitor
     device                    cf                    ce                    ci
      model                     C                     C                     C
capacitance                 1e-05               1.5e-05            3.7224e-06
      dtemp                     0                     0                     0
     bv_max                 1e+99                 1e+99                 1e+99
          i                     0                     0                     0
          p                    -0                    -0                     0

 Diode: Junction Diode model
     device                    de                  dp19                  dp18
      model               default               default               default
         vd           1.30865e-15           6.89256e-17           6.89256e-17
         id           1.81491e-27            9.5571e-29            9.5571e-29
         gd           1.38662e-12           1.38662e-12           1.38662e-12
         cd                     0                     0                     0

 Diode: Junction Diode model
     device                  dp17                  dp16                  dp15
      model               default               default               default
         vd           6.89089e-17           6.89145e-17           6.88981e-17
         id           9.55543e-29           9.55598e-29           9.55434e-29
         gd           1.38662e-12           1.38662e-12           1.38662e-12
         cd                     0                     0                     0

 Diode: Junction Diode model
     device                  dp14                  dp13                  dp12
      model               default               default               default
         vd           6.89145e-17           6.89151e-17           6.89154e-17
         id           9.55598e-29           9.55605e-29           9.55608e-29
         gd           1.38662e-12           1.38662e-12           1.38662e-12
         cd                     0                     0                     0

 Diode: Junction Diode model
     device                  dp11                  dp10                   dp9
      model               default               default               default
         vd           6.89145e-17           6.89207e-17           6.89387e-17
         id           9.55598e-29            9.5566e-29            9.5584e-29
         gd           1.38662e-12           1.38662e-12           1.38662e-12
         cd                     0                     0                     0

 Diode: Junction Diode model
     device                   dp8                   dp7                   dp6
      model               default               default               default
         vd           6.89387e-17           6.89207e-17           6.89387e-17
         id            9.5584e-29            9.5566e-29            9.5584e-29
         gd           1.38662e-12           1.38662e-12           1.38662e-12
         cd                     0                     0                     0

 Diode: Junction Diode model
     device                   dp5                   dp4                   dp3
      model               default               default               default
         vd           6.85208e-17           6.89216e-17             6.889e-17
         id           9.51661e-29            9.5567e-29           9.55354e-29
         gd           1.38662e-12           1.38662e-12           1.38662e-12
         cd                     0                     0                     0

 Diode: Junction Diode model
     device                   dp2                   dp1                    d4
      model               default               default               default
         vd           6.89049e-17           6.85198e-17            -6.543e-16
         id           9.55502e-29           9.51652e-29          -9.07431e-28
         gd           1.38662e-12           1.38662e-12           1.38662e-12
         cd                     0                     0                     0

 Diode: Junction Diode model
     device                    d3                    d2                    d1
      model               default               default               default
         vd            -6.543e-16          -6.54347e-16          -6.54347e-16
         id          -9.07431e-28          -9.07478e-28          -9.07478e-28
         gd           1.38662e-12           1.38662e-12           1.38662e-12
         cd                     0                     0                     0

 Inductor: Fixed inductor
     device                    l2                    l1
      model                     L                     L
 inductance                    20               1155.56
      dtemp                     0                     0
         nt                     0                     0
       flux                     0                     0
          v                     0                     0
          i           2.89622e-46          -1.69173e-39
          p                     0                    -0

 mutual: Mutual inductors
     device                     k
          k               152.022
  inductor1                    l1
  inductor2                    l2

 Resistor: Simple linear resistor
     device                    rf                    re                    ri
      model                     R                     R                     R
 resistance                 10000                 15000                3722.4
         ac                 10000                 15000                3722.4
      dtemp                     0                     0                     0
     bv_max                 1e+99                 1e+99                 1e+99
      noisy                     1                     1                     1
          i                     0          -5.59316e-27          -5.51851e-27
          p                     0           4.69252e-49           1.13362e-49

 Resistor: Simple linear resistor
     device                    rs
      model                     R
 resistance                    10
         ac                    10
      dtemp                     0
     bv_max                 1e+99
      noisy                     1
          i          -1.69173e-39
          p           2.86194e-77

 Vsource: Independent voltage source
     device                   vin
         dc                     0
      acmag                     0
      pulse                     0
                              230
                               50
                                0
                                0
        sin                     0
                              230
                               50
                                0
                                0
        exp                     0
                              230
                               50
                                0
                                0
        pwl                     0
                              230
                               50
                                0
                                0
       sffm                     0
                              230
                               50
                                0
                                0
         am                     0
                              230
                               50
                                0
                                0
    trnoise                     0
                              230
                               50
                                0
                                0
   trrandom                     0
                              230
                               50
                                0
                                0
          i           1.69173e-39
          p                    -0


Total analysis time (seconds) = 4.14

Total elapsed time (seconds) = 4.191 

Total DRAM available = 6917.191 MB.
DRAM currently available =  945.832 MB.
Total ngspice program size =  212.473 MB.
Resident set size =  113.965 MB.
Shared ngspice pages =    8.031 MB.
Text (code) pages =    5.789 MB.
Stack = 0 bytes.
Library pages =  192.738 MB.

