
Circuit: *

Doing analysis at TEMP = 27.000000 and TNOM = 27.000000


Initial Transient Solution
--------------------------

Node                                   Voltage
----                                   -------
a                                  5.30271e-15
c                                  5.30271e-15
1                                  1.06055e-14
2                                  1.06055e-14
3                                  1.00473e-14
4                                  9.48908e-15
5                                  8.93086e-15
6                                  8.37273e-15
7                                   7.8146e-15
8                                  7.25643e-15
9                                  6.69827e-15
10                                 6.14008e-15
11                                 5.58189e-15
12                                 5.02372e-15
13                                 4.46553e-15
14                                 3.90732e-15
15                                 3.34913e-15
16                                 2.79094e-15
17                                 2.23276e-15
18                                 1.67457e-15
19                                 1.11638e-15
20                                 5.58191e-16
f                                 -6.79982e-22
g                                 -6.79982e-22
vs#branch                         -2.86986e-42



No. of Data Rows : 100001
ERROR: (internal)  This operation is not defined for display type printf.
Can't open viewport for graphics.
vavg                =  1.204157e+01 from=  5.000000e+01 to=  5.100000e+01
vmax                =  1.204163e+01 at=  5.099999e+01
vmin                =  1.204150e+01 at=  5.000487e+01
vavg-12 = 4.157000e-02
vmax-vmin = 1.300000e-04
1/(((12-12)+(vmax-vmin)+1u)*(55)) = 1.387925e+02

The file "vospice100.ps" may be printed on a postscript printer.
Doing analysis at TEMP = 27.000000 and TNOM = 27.000000



No. of Data Rows : 1
	Node                                  Voltage
	----                                  -------
	----	-------
	g                                -6.79982e-22
	f                                -6.79982e-22
	V(20)                            5.581914e-16
	V(19)                            1.116383e-15
	V(18)                            1.674573e-15
	V(17)                            2.232764e-15
	V(16)                            2.790944e-15
	V(15)                            3.349134e-15
	V(14)                            3.907324e-15
	V(13)                            4.465531e-15
	V(12)                            5.023720e-15
	V(11)                            5.581885e-15
	V(10)                            6.140075e-15
	V(9)                             6.698268e-15
	V(8)                             7.256431e-15
	V(7)                             7.814595e-15
	V(6)                             8.372732e-15
	V(5)                             8.930865e-15
	V(4)                             9.489082e-15
	V(3)                             1.004730e-14
	V(2)                             1.060548e-14
	V(1)                             1.060548e-14
	c                                5.302713e-15
	a                                5.302713e-15

	Source	Current
	------	-------

	@cf[i]                           0.000000e+00
	@rf[i]                           0.000000e+00
	@ce[i]                           0.000000e+00
	@re[i]                           -4.53322e-26
	@de[id]                          1.470664e-26
	@dp19[id]                        7.735746e-28
	@dp18[id]                        7.735746e-28
	@dp17[id]                        7.735740e-28
	@dp16[id]                        7.735740e-28
	@dp15[id]                        7.735629e-28
	@dp14[id]                        7.735734e-28
	@dp13[id]                        7.735734e-28
	@dp12[id]                        7.735901e-28
	@dp11[id]                        7.735728e-28
	@dp10[id]                        7.735480e-28
	@dp9[id]                         7.735734e-28
	@dp8[id]                         7.735759e-28
	@dp7[id]                         7.735461e-28
	@dp6[id]                         7.735480e-28
	@dp5[id]                         7.735195e-28
	@dp4[id]                         7.735164e-28
	@dp3[id]                         7.736006e-28
	@dp2[id]                         7.735988e-28
	@dp1[id]                         7.735616e-28
	@ri[i]                           -4.47249e-26
	@ci[i]                           0.000000e+00
	@d4[id]                          -7.35330e-27
	@d3[id]                          -7.35330e-27
	@d2[id]                          -7.35334e-27
	@d1[id]                          -7.35334e-27
	vs#branch                        -2.86986e-42

 Capacitor models (Fixed capacitor)
      model                     C

        cap                     0
         cj                     0
       cjsw                     0
       defw                 1e-05
       defl                     0
     narrow                     0
      short                     0
        del                     0
        tc1                     0
        tc2                     0
         di                     0
      thick                     0
     bv_max                 1e+99

 Diode models (Junction Diode model)
      model               default

      level                     1
         is                 1e-14
        jsw                     0
         rs                     0
        trs                     0
       trs2                     0
          n                     1
         ns                     1
         tt                     0
       ttt1                     0
       ttt2                     0
        cjo                     0
         vj                     1
          m                   0.5
        tm1                     0
        tm2                     0
        cjp                     0
        php                     1
       mjsw                  0.33
        ikf                     0
        ikr                     0
        nbv                     1
       area                     1
         pj                     0
       tlev                     0
      tlevc                     0
         eg                  1.11
        xti                     3
        cta                     0
        ctp                     0
        tpb                     0
       tphp                     0
       jtun                     0
     jtunsw                     0
       ntun                    30
     xtitun                     3
        keg                     1
         kf                     0
         af                     1
         fc                   0.5
        fcs                   0.5
         bv                     0
        ibv                 0.001
        tcv                     0
     fv_max                 1e+99
     bv_max                 1e+99

 Resistor models (Simple linear resistor)
      model                     R

        rsh                     0
     narrow                     0
      short                     0
        tc1                     0
        tc2                     0
        tce                     0
       defw                 1e-05
          l                 1e-05
         kf                     0
         af                     0
          r                     0
     bv_max                 1e+99
         lf                     1
         wf                     1
         ef                     1

 Capacitor: Fixed capacitor
     device                    cf                    ce                    ci
      model                     C                     C                     C
capacitance               5.8e-05               1.5e-05               3.5e-06
      dtemp                     0                     0                     0
     bv_max                 1e+99                 1e+99                 1e+99
          i                     0                     0                     0
          p                    -0                    -0                     0

 Diode: Junction Diode model
     device                    de                  dp19                  dp18
      model               default               default               default
         vd           1.06055e-14           5.58191e-16           5.58191e-16
         id           1.47066e-26           7.73575e-28           7.73575e-28
         gd           1.38664e-12           1.38664e-12           1.38664e-12
         cd                     0                     0                     0

 Diode: Junction Diode model
     device                  dp17                  dp16                  dp15
      model               default               default               default
         vd           5.58191e-16           5.58191e-16            5.5818e-16
         id           7.73574e-28           7.73574e-28           7.73563e-28
         gd           1.38664e-12           1.38664e-12           1.38664e-12
         cd                     0                     0                     0

 Diode: Junction Diode model
     device                  dp14                  dp13                  dp12
      model               default               default               default
         vd            5.5819e-16            5.5819e-16           5.58207e-16
         id           7.73573e-28           7.73573e-28            7.7359e-28
         gd           1.38664e-12           1.38664e-12           1.38664e-12
         cd                     0                     0                     0

 Diode: Junction Diode model
     device                  dp11                  dp10                   dp9
      model               default               default               default
         vd            5.5819e-16           5.58165e-16            5.5819e-16
         id           7.73573e-28           7.73548e-28           7.73573e-28
         gd           1.38664e-12           1.38664e-12           1.38664e-12
         cd                     0                     0                     0

 Diode: Junction Diode model
     device                   dp8                   dp7                   dp6
      model               default               default               default
         vd           5.58193e-16           5.58163e-16           5.58165e-16
         id           7.73576e-28           7.73546e-28           7.73548e-28
         gd           1.38664e-12           1.38664e-12           1.38664e-12
         cd                     0                     0                     0

 Diode: Junction Diode model
     device                   dp5                   dp4                   dp3
      model               default               default               default
         vd           5.58136e-16           5.58133e-16           5.58217e-16
         id           7.73519e-28           7.73516e-28           7.73601e-28
         gd           1.38664e-12           1.38664e-12           1.38664e-12
         cd                     0                     0                     0

 Diode: Junction Diode model
     device                   dp2                   dp1                    d4
      model               default               default               default
         vd           5.58216e-16           5.58178e-16          -5.30271e-15
         id           7.73599e-28           7.73562e-28           -7.3533e-27
         gd           1.38664e-12           1.38664e-12           1.38664e-12
         cd                     0                     0                     0

 Diode: Junction Diode model
     device                    d3                    d2                    d1
      model               default               default               default
         vd          -5.30271e-15          -5.30276e-15          -5.30276e-15
         id           -7.3533e-27          -7.35334e-27          -7.35334e-27
         gd           1.38664e-12           1.38664e-12           1.38664e-12
         cd                     0                     0                     0

 Resistor: Simple linear resistor
     device                    rf                    re                    ri
      model                     R                     R                     R
 resistance                 58000                 15000                  3500
         ac                 58000                 15000                  3500
      dtemp                     0                     0                     0
     bv_max                 1e+99                 1e+99                 1e+99
      noisy                     1                     1                     1
          i                     0          -4.53322e-26          -4.47249e-26
          p                     0           3.08251e-47            7.0011e-48

 Vsource: Independent voltage source
     device                    vs
         dc                     0
      acmag                     0
      pulse                     0
                               30
                               50
        sin                     0
                               30
                               50
        exp                     0
                               30
                               50
        pwl                     0
                               30
                               50
       sffm                     0
                               30
                               50
         am                     0
                               30
                               50
    trnoise                     0
                               30
                               50
   trrandom                     0
                               30
                               50
          i          -2.86986e-42
          p                     0

CPU time since last call: 64.719 seconds.

Total CPU time: 64.719 seconds.

Total DRAM available = 6917.261719 MB.
DRAM currently available = 1331.550781 MB.
Total ngspice program size = 28.666992 MB.
Resident set size = 14.216797 MB.
Shared ngspice pages = 1.987305 MB.
Text (code) pages = 1.597656 MB.
Stack = 0 bytes.
Library pages = 12.288086 MB.

